.MODEL MbreakN3  NMOS( VTO=1.941 KP=100u L=10u W=100u LAMBDA=0.01) 
*$
.model NMOS1 NMOS( VTO=0.941 KP=100u L=10u W=100u LAMBDA=0.01) 
*$
.MODEL MbreakP3  NMOS( VTO=-1.941 KP=30u L=10u W=330u LAMBDA=0.01) 
*$
.MODEL Pmos PMOS( VTO=-1.941 KP=30u L=10u W=330u LAMBDA=0.01) 
*$
.MODEL Nmos2 NMOS( VTO=1.941 KP=100u L=10u W=100u LAMBDA=0.01) 
*$
